Version 4.1
SHEET 1 1188 804
WIRE -1232 -64 -1232 -112
WIRE -1120 -64 -1120 -112
WIRE -1120 -64 -1232 -64
WIRE -992 -64 -1120 -64
WIRE -992 -16 -992 -64
WIRE -256 -16 -416 -16
WIRE -256 32 -256 -16
WIRE -416 144 -416 64
WIRE 192 224 160 224
WIRE 352 224 272 224
WIRE -576 240 -992 240
WIRE -1072 304 -1072 240
WIRE -736 304 -1072 304
WIRE -576 304 -656 304
WIRE 160 336 160 224
WIRE 160 336 -256 336
WIRE 192 336 160 336
WIRE 352 352 352 224
WIRE 352 352 256 352
WIRE 384 352 352 352
WIRE -1072 368 -1072 304
WIRE -832 368 -1072 368
WIRE -576 368 -752 368
WIRE 192 368 160 368
WIRE 160 416 160 368
WIRE -1072 432 -1072 368
WIRE -960 432 -1072 432
WIRE -576 432 -880 432
WIRE -576 496 -672 496
WIRE -112 512 -256 512
WIRE -112 528 -112 512
WIRE -576 560 -800 560
WIRE -1072 640 -1072 432
WIRE -352 704 -352 656
WIRE -480 784 -480 656
FLAG 384 352 out
FLAG 224 320 +V
FLAG 224 384 -V
FLAG 160 496 0
FLAG -992 -16 0
FLAG -1232 -192 +V
FLAG -1120 -192 -V
FLAG -256 32 0
FLAG -352 704 0
FLAG -880 560 0
FLAG -752 496 0
FLAG -1072 640 0
FLAG -112 608 0
FLAG -480 784 0
SYMBOL res 288 208 R90
WINDOW 0 0 56 VBottom 2
WINDOW 3 32 56 VTop 2
SYMATTR InstName Rf
SYMATTR Value 10k
SYMBOL voltage 160 400 R0
WINDOW 123 24 124 Left 2
WINDOW 39 0 0 Left 0
SYMATTR Value2 AC 1
SYMATTR InstName V1
SYMATTR Value 0
SYMBOL voltage -1232 -208 R0
WINDOW 123 0 0 Left 0
WINDOW 39 0 0 Left 0
SYMATTR InstName V2
SYMATTR Value 15
SYMBOL voltage -1120 -208 R0
WINDOW 123 0 0 Left 0
WINDOW 39 0 0 Left 0
SYMATTR InstName V3
SYMATTR Value -15
SYMBOL Switches\\ADG1604 -416 432 R0
SYMATTR InstName U2
SYMBOL voltage -656 496 R90
WINDOW 0 -32 56 VBottom 2
WINDOW 3 32 56 VTop 2
WINDOW 123 0 0 Left 0
WINDOW 39 0 0 Left 0
SYMATTR InstName V9
SYMATTR Value 5
SYMBOL voltage -784 560 R90
WINDOW 0 -32 56 VBottom 2
WINDOW 3 32 56 VTop 2
WINDOW 123 0 0 Left 0
WINDOW 39 0 0 Left 0
SYMATTR InstName V10
SYMATTR Value 0
SYMBOL res -976 224 R90
WINDOW 0 0 56 VBottom 2
WINDOW 3 32 56 VTop 2
SYMATTR InstName R1
SYMATTR Value 6.8k
SYMBOL res -640 288 R90
WINDOW 0 0 56 VBottom 2
WINDOW 3 32 56 VTop 2
SYMATTR InstName R2
SYMATTR Value 4.7k
SYMBOL res -736 352 R90
WINDOW 0 0 56 VBottom 2
WINDOW 3 32 56 VTop 2
SYMATTR InstName R3
SYMATTR Value 3.3k
SYMBOL res -864 416 R90
WINDOW 0 0 56 VBottom 2
WINDOW 3 32 56 VTop 2
SYMATTR InstName R4
SYMATTR Value 2.2k
SYMBOL voltage -416 80 R180
WINDOW 123 0 0 Left 0
WINDOW 39 0 0 Left 0
SYMATTR InstName V4
SYMATTR Value 5
SYMBOL OpAmps\\AD820 224 288 R0
SYMATTR InstName U1
SYMBOL voltage -112 624 R180
WINDOW 123 0 0 Left 0
WINDOW 39 0 0 Left 0
SYMATTR InstName V5
SYMATTR Value 5
TEXT -1368 64 Left 2 ;.op
TEXT -1552 264 Left 2 !.ac dec 100 .01 10Meg
