Version 4.1
SHEET 1 1188 784
WIRE -112 -64 -112 -112
WIRE 192 16 160 16
WIRE 352 16 272 16
WIRE -352 32 -592 32
WIRE -592 96 -592 32
WIRE -432 96 -592 96
WIRE -272 96 -352 96
WIRE 160 128 160 16
WIRE 160 128 48 128
WIRE 192 128 160 128
WIRE 352 144 352 16
WIRE 352 144 256 144
WIRE 384 144 352 144
WIRE -592 160 -592 96
WIRE -512 160 -592 160
WIRE -272 160 -432 160
WIRE 192 160 160 160
WIRE 160 208 160 160
WIRE -592 224 -592 160
WIRE -272 224 -512 224
WIRE 80 304 48 304
WIRE -592 352 -592 224
WIRE 80 352 80 304
WIRE -176 480 -176 448
WIRE -48 480 -48 448
FLAG 384 144 out
IOPIN 384 144 Out
FLAG 224 112 +V
IOPIN 224 112 In
FLAG 224 176 -V
IOPIN 224 176 In
FLAG -272 288 AO
IOPIN -272 288 In
FLAG -272 352 A1
IOPIN -272 352 In
FLAG -176 480 VSS
IOPIN -176 480 In
FLAG -48 480 0
FLAG -112 -112 +V
IOPIN -112 -112 In
FLAG 80 352 +V
IOPIN 80 352 In
FLAG 160 208 in
IOPIN 160 208 In
FLAG -592 352 0
SYMBOL res 288 0 R90
WINDOW 0 0 56 VBottom 2
WINDOW 3 32 56 VTop 2
SYMATTR InstName Rf
SYMATTR Value 10k
SYMBOL res -256 16 R90
WINDOW 0 0 56 VBottom 2
WINDOW 3 -21 107 VTop 2
SYMATTR InstName Rg1
SYMATTR Value 6.8k
SYMBOL res -336 80 R90
WINDOW 0 0 56 VBottom 2
WINDOW 3 32 56 VTop 2
SYMATTR InstName Rg2
SYMATTR Value 4.7k
SYMBOL res -416 144 R90
WINDOW 0 0 56 VBottom 2
WINDOW 3 32 56 VTop 2
SYMATTR InstName Rg3
SYMATTR Value 3.3k
SYMBOL res -496 208 R90
WINDOW 0 0 56 VBottom 2
WINDOW 3 32 56 VTop 2
SYMATTR InstName Rg4
SYMATTR Value 2.2k
SYMBOL Switches\\ADG1604 -112 224 R0
SYMATTR InstName U2
SYMBOL OpAmps\\UniversalOpAmp2 224 144 R0
WINDOW 0 27 17 Left 2
SYMATTR InstName AD820
