Version 4.1
SHEET 1 2004 2064
WIRE 480 -48 480 -64
WIRE 672 -48 672 -64
WIRE 480 48 480 32
WIRE 672 48 672 32
WIRE 912 64 912 32
WIRE 976 64 912 64
WIRE 1024 64 1024 32
WIRE 1024 64 976 64
WIRE 976 80 976 64
WIRE 576 224 576 176
WIRE 352 240 336 240
WIRE 464 240 352 240
WIRE 528 240 464 240
WIRE 1648 272 1600 272
WIRE 528 288 496 288
WIRE 1472 320 1376 320
WIRE 576 336 576 304
WIRE 736 336 576 336
WIRE 1120 336 1088 336
WIRE 1376 336 1376 320
WIRE 1376 336 1328 336
WIRE 1856 352 1824 352
WIRE 336 368 336 240
WIRE 1120 368 1120 336
WIRE 1216 368 1120 368
WIRE 576 384 576 336
WIRE 1648 384 1648 272
WIRE 1712 384 1648 384
WIRE 464 400 464 240
WIRE 528 400 464 400
WIRE 496 448 496 288
WIRE 528 448 496 448
WIRE 496 480 496 448
WIRE 336 528 336 448
WIRE 576 528 576 464
FLAG 672 48 0
FLAG 480 48 0
FLAG 672 -64 +V
FLAG 480 -64 -V
FLAG 336 528 0
FLAG 496 480 0
FLAG 736 416 0
FLAG 576 176 Vb
FLAG 960 384 Vb
FLAG 576 528 Va
FLAG 960 352 Va
FLAG 960 288 +V
FLAG 1216 304 +V
FLAG 1712 320 +V
FLAG 960 320 -V
FLAG 1216 336 -V
FLAG 1712 352 -V
FLAG 1856 352 out
FLAG 976 80 0
FLAG 912 -48 sw1
FLAG 1024 -48 sw2
FLAG 1472 192 +V
FLAG 1472 224 -V
FLAG 1472 256 sw1
FLAG 1472 288 sw2
FLAG 1472 352 -V
FLAG 1120 336 OutAI
FLAG 1376 320 OutKHN
FLAG 1648 272 OutPGA
FLAG 352 240 in
SYMBOL voltage 672 -64 R0
WINDOW 123 24 124 Left 2
WINDOW 39 0 0 Left 2
SYMATTR InstName V1
SYMATTR Value 15
SYMBOL voltage 480 -64 R0
WINDOW 123 0 0 Left 2
WINDOW 39 0 0 Left 2
SYMATTR InstName V3
SYMATTR Value -15
SYMBOL voltage 336 352 R0
WINDOW 123 38 63 Left 2
WINDOW 39 0 0 Left 2
WINDOW 0 38 12 Left 2
WINDOW 3 38 40 Left 2
SYMATTR InstName Vin1
SYMATTR Value SINE(0 0.232229182822873  1k)
SYMBOL e 576 208 R0
SYMATTR InstName E1
SYMATTR Value -0.5
SYMBOL e 576 368 R0
SYMATTR InstName E2
SYMATTR Value -0.5
SYMBOL voltage 736 320 R0
WINDOW 123 38 63 Left 2
WINDOW 39 0 0 Left 2
WINDOW 0 38 12 Left 2
WINDOW 3 -188 38 Left 2
SYMATTR Value2 AC 0
SYMATTR InstName Vicm1
SYMATTR Value ""
SYMBOL voltage 912 -64 R0
WINDOW 123 0 0 Left 0
WINDOW 39 0 0 Left 0
SYMATTR InstName V2
SYMATTR Value 0
SYMBOL voltage 1024 -64 R0
WINDOW 123 0 0 Left 0
WINDOW 39 0 0 Left 0
SYMATTR InstName V4
SYMATTR Value 0
SYMBOL AI_simbol 1024 336 R0
SYMATTR InstName AI_3AO_AC
SYMBOL KHN_simbol 1264 336 R0
SYMATTR InstName KHN
SYMBOL PGA_simbol 1536 272 R0
SYMATTR InstName PGA
SYMBOL Redresor_simbol 1760 352 R0
SYMATTR InstName Redresor
TEXT 160 56 Left 2 !.tran 0 5m 0 1u
